test/fixtures/powermodels/case5_strg/sol_ac_opf.json
{
  "termination_status": "LOCALLY_SOLVED",
  "objective": 17039.33316285038,
  "solution": {
    "multiinfrastructure": false,
    "multinetwork": true,
    "nw": {
      "1": {
        "baseMVA": 100.0,
        "branch": {
          "4": {
            "qf": -1.9753666063952628,
            "qt": 2.011207581209986,
            "pt": 0.6348174871038218,
            "pf": -0.6295669861444131
          },
          "1": {
            "qf": -0.7839309972438593,
            "qt": 0.9892666063952629,
            "pt": -2.3704330138555867,
            "pf": 2.3915784311036474
          },
          "5": {
            "qf": 0.5127235348743401,
            "qt": -0.4953741248643902,
            "pt": 0.6178796482089964,
            "pf": -0.6155899109483866
          },
          "2": {
            "qf": 0.3874417929378229,
            "qt": -0.2552241644272403,
            "pt": -1.898382779874285,
            "pf": 1.9121477625696326
          },
          "6": {
            "qf": 0.4106131678750585,
            "qt": -0.4059503292637117,
            "pt": -0.3404254933607354,
            "pf": 0.3414465734814855
          },
          "7": {
            "qf": 0.18958579394710803,
            "qt": 0.013813316031371746,
            "pt": 2.399960260048256,
            "pf": -2.3790713847599996
          },
          "3": {
            "qf": 1.971489222579045,
            "qt": -1.9305151551073543,
            "pt": 2.210418308312285,
            "pf": -2.2037261678809785
          }
        },
        "gen": {
          "4": {
            "qg": 0.34773717539176574,
            "pg": -9.786023292545607e-9,
            "pg_cost": -3.914409317018243e-5
          },
          "1": {
            "qg": 0.3000000077615043,
            "pg": 0.40000000956398685,
            "pg_cost": 560.0000133895816
          },
          "5": {
            "qg": -1.9167018384798304,
            "pg": 4.377027453904698,
            "pg_cost": 4377.027453904698
          },
          "2": {
            "qg": 1.2750000105115042,
            "pg": 1.7000000162283144,
            "pg_cost": 2550.0000243424715
          },
          "3": {
            "qg": 3.9000000312531027,
            "pg": 3.1841019034525737,
            "pg_cost": 9552.305710357721
          }
        },
        "storage": {
          "1": {
            "qs": -0.02064425270628177,
            "sd_on": 1.0,
            "qsc": -0.02064425270628177,
            "sc_on": 0.0,
            "se": -9.961453557629837e-9,
            "sc": -9.999521242196068e-9,
            "sd": 0.1800000017656529,
            "ps": -0.17657224618434722
          },
          "2": {
            "qs": 5.961522828778565e-10,
            "sd_on": 1.0,
            "qsc": 5.961522828775113e-10,
            "sc_on": 0.0,
            "se": -9.867564726382278e-9,
            "sc": -9.999521165568264e-9,
            "sd": 0.24000000069439653,
            "ps": -0.2333511144558429
          }
        },
        "bus": {
          "4": {
            "va": -9.175351994184159e-23,
            "vm": 0.8999999933075538
          },
          "1": {
            "va": 0.0690419900660215,
            "vm": 0.9171282128588116
          },
          "10": {
            "va": 0.08756651035775571,
            "vm": 0.9049719153439197
          },
          "2": {
            "va": -0.011820521607927835,
            "vm": 0.9367888799299277
          },
          "3": {
            "va": -0.006623562971315018,
            "vm": 0.9602074697017016
          }
        }
      }
    },
    "per_unit": true
  }
}

